REMARK  2 active torsions:
REMARK  status: ('A' for Active; 'I' for Inactive)
REMARK    1  A    between atoms: C7_10  and  O4_11 
REMARK    2  A    between atoms: C7_10  and  C8_12 
ROOT
HETATM    1  O1  NON     1      -4.062   1.063  -2.643  0.00  0.00    -0.267 OA
HETATM    2  C1  NON     1      -3.667   0.031  -2.088  0.00  0.00     0.257 A 
HETATM    3  C2  NON     1      -2.474  -0.081  -1.294  0.00  0.00     0.044 A 
HETATM    4  C3  NON     1      -1.643   1.173  -1.141  0.00  0.00     0.224 C 
HETATM    5  O2  NON     1      -0.714   1.127  -0.035  0.00  0.00    -0.314 OA
HETATM    6  C4  NON     1      -0.316  -0.013   0.563  0.00  0.00     0.298 C 
HETATM    7  O3  NON     1       0.478   0.103   1.499  0.00  0.00    -0.261 OA
HETATM    8  C5  NON     1      -2.104  -1.280  -0.733  0.00  0.00     0.002 A 
HETATM    9  C6  NON     1      -2.928  -2.428  -0.943  0.00  0.00     0.043 A 
HETATM   10  C7  NON     1      -0.812  -1.394   0.074  0.00  0.00     0.173 C 
HETATM   11  N1  NON     1      -4.420  -1.104  -2.253  0.00  0.00    -0.307 N 
HETATM   12  C10 NON     1      -5.665  -1.212  -3.017  0.00  0.00     0.173 A 
HETATM   13  C11 NON     1      -6.049  -2.663  -2.874  0.00  0.00    -0.008 A 
HETATM   14  C12 NON     1      -7.112  -3.365  -3.370  0.00  0.00     0.025 A 
HETATM   15  C13 NON     1      -7.184  -4.745  -3.051  0.00  0.00    -0.007 A 
HETATM   16  C14 NON     1      -6.161  -5.313  -2.243  0.00  0.00     0.068 A 
HETATM   17  N2  NON     1      -5.109  -4.563  -1.768  0.00  0.00    -0.245 NA
HETATM   18  C15 NON     1      -5.072  -3.289  -2.081  0.00  0.00     0.092 A 
HETATM   19  C16 NON     1      -4.067  -2.322  -1.697  0.00  0.00     0.068 A 
HETATM   20  C17 NON     1      -8.239  -5.570  -3.512  0.00  0.00     0.014 A 
HETATM   21  C18 NON     1      -8.274  -6.906  -3.181  0.00  0.00     0.001 A 
HETATM   22  C19 NON     1      -7.260  -7.469  -2.379  0.00  0.00     0.002 A 
HETATM   23  C20 NON     1      -6.224  -6.686  -1.920  0.00  0.00     0.032 A 
ENDROOT
BRANCH  10  24
HETATM   24  O4  NON     1      -1.081  -2.237   1.234  0.00  0.00    -0.375 OA
HETATM   25  H4  NON     1      -0.485  -1.966   1.957  0.00  0.00     0.211 HD
ENDBRANCH  10  24
BRANCH  10  26
HETATM   26  C8  NON     1       0.281  -2.118  -0.750  0.00  0.00     0.049 C 
HETATM   27  C9  NON     1       0.708  -1.423  -2.056  0.00  0.00     0.009 C 
ENDBRANCH  10  26
TORSDOF 2
