@<TRIPOS>MOLECULE
EHD
42 46 1 0 0 
SMALL
USER_CHARGES


@<TRIPOS>ATOM
  1 O1      -4.0625     1.0630    -2.6432 O.2   1 NONA  -0.5700 
  2 C1      -3.6672     0.0314    -2.0882 C.2   1 NONA   0.6156 
  3 C2      -2.4742    -0.0812    -1.2937 C.2   1 NONA  -0.1238 
  4 C3      -1.6433     1.1728    -1.1409 C.3   1 NONA   0.2582 
  5 O2      -0.7135     1.1267    -0.0349 O.3   1 NONA  -0.4300 
  6 C4      -0.3161    -0.0126     0.5635 C.2   1 NONA   0.6590 
  7 O3       0.4784     0.1029     1.4993 O.2   1 NONA  -0.5700 
  8 C5      -2.1037    -1.2795    -0.7331 C.2   1 NONA  -0.1382 
  9 C6      -2.9282    -2.4281    -0.9427 C.2   1 NONA  -0.1500 
 10 C7      -0.8115    -1.3936     0.0738 C.3   1 NONA   0.4792 
 11 O4      -1.0812    -2.2372     1.2342 O.3   1 NONA  -0.6800 
 12 C8       0.2808    -2.1178    -0.7497 C.3   1 NONA  -0.1600 
 13 C9       0.7082    -1.4233    -2.0563 C.3   1 NONA  -0.2400 
 14 N1      -4.4199    -1.1038    -2.2535 N.am  1 NONA  -0.4691 
 15 C10     -5.6652    -1.2118    -3.0171 C.3   1 NONA   0.2836 
 16 C11     -6.0490    -2.6633    -2.8743 C.ar  1 NONA  -0.1435 
 17 C12     -7.1116    -3.3648    -3.3697 C.ar  1 NONA  -0.1500 
 18 C13     -7.1843    -4.7445    -3.0513 C.ar  1 NONA  -0.0000 
 19 C14     -6.1605    -5.3134    -2.2430 C.ar  1 NONA   0.3100 
 20 N2      -5.1087    -4.5632    -1.7682 N.ar  1 NONA  -0.6200 
 21 C15     -5.0720    -3.2891    -2.0809 C.ar  1 NONA   0.3384 
 22 C16     -4.0667    -2.3221    -1.6970 C.2   1 NONA   0.0806 
 23 C17     -8.2389    -5.5702    -3.5121 C.ar  1 NONA  -0.1500 
 24 C18     -8.2741    -6.9064    -3.1814 C.ar  1 NONA  -0.1500 
 25 C19     -7.2602    -7.4692    -2.3793 C.ar  1 NONA  -0.1500 
 26 C20     -6.2243    -6.6863    -1.9198 C.ar  1 NONA  -0.1500 
 27 H1      -1.0936     1.3637    -2.0540 H     1 NONA   0.0800 
 28 H2      -2.2894     2.0313    -1.0019 H     1 NONA   0.0800 
 29 H3      -2.6625    -3.3619    -0.5139 H     1 NONA   0.1500 
 30 H4      -0.4854    -1.9656     1.9567 H     1 NONA   0.4000 
 31 H5       1.1605    -2.2344    -0.1142 H     1 NONA   0.0800 
 32 H6      -0.0848    -3.1174    -0.9904 H     1 NONA   0.0800 
 33 H7       1.4793    -2.0202    -2.5460 H     1 NONA   0.0800 
 34 H8      -0.1412    -1.3342    -2.7355 H     1 NONA   0.0800 
 35 H9       1.1172    -0.4333    -1.8479 H     1 NONA   0.0800 
 36 H10     -6.4312    -0.5613    -2.6153 H     1 NONA   0.0800 
 37 H11     -5.5151    -0.9454    -4.0553 H     1 NONA   0.0800 
 38 H12     -7.8555    -2.9058    -3.9688 H     1 NONA   0.1500 
 39 H13     -9.0024    -5.1502    -4.1151 H     1 NONA   0.1500 
 40 H14     -9.0649    -7.5227    -3.5277 H     1 NONA   0.1500 
 41 H15     -7.3016    -8.4999    -2.1328 H     1 NONA   0.1500 
 42 H16     -5.4586    -7.1004    -1.3169 H     1 NONA   0.1500 
@<TRIPOS>BOND
  1   1   2  2   
  2   2   3  1   
  3   2  14  am  
  4   3   4  1   
  5   3   8  2   
  6   4   5  1   
  7   4  27  1   
  8   4  28  1   
  9   5   6  1   
 10   6   7  2   
 11   6  10  1   
 12   8   9  1   
 13   8  10  1   
 14   9  22  2   
 15   9  29  1   
 16  10  11  1   
 17  10  12  1   
 18  11  30  1   
 19  12  13  1   
 20  12  31  1   
 21  12  32  1   
 22  13  33  1   
 23  13  34  1   
 24  13  35  1   
 25  14  15  1   
 26  14  22  1   
 27  15  16  1   
 28  15  36  1   
 29  15  37  1   
 30  16  17  ar  
 31  16  21  ar  
 32  17  18  ar  
 33  17  38  1   
 34  18  19  ar  
 35  18  23  ar  
 36  19  20  ar  
 37  19  26  ar  
 38  20  21  ar  
 39  21  22  1   
 40  23  24  ar  
 41  23  39  1   
 42  24  25  ar  
 43  24  40  1   
 44  25  26  ar  
 45  25  41  1   
 46  26  42  1   
@<TRIPOS>SUBSTRUCTURE
  1 NONA  22 GROUP 4 **** **** 0

# MOE 2022.02 (io_trps.svl 2020.11)
